 &time_control
 RUN_DAYS = 0,
 RUN_HOURS = 0,
 RUN_MINUTES = 0,
 RUN_SECONDS = 0,
 START_YEAR = 2000, 2000, 2000,
 START_MONTH = 00, 00, 00,
 START_DAY = 00, 00, 00,
 START_HOUR = 00,   00,   00,
 START_MINUTE = 00,   00,   00,
 START_SECOND = 00,   00,   00,
 END_YEAR = 2000, 2000, 2000,
 END_MONTH = 00, 00, 00,
 END_DAY = 00, 00, 00,
 END_HOUR = 00,   00,   00,
 END_MINUTE = 00,   00,   00,
 END_SECOND = 00,   00,   00,
 INTERVAL_SECONDS = 10800,
 INPUT_FROM_FILE = .true.,.true.,.false.,
 HISTORY_INTERVAL = 60, 60, 60,
 FRAMES_PER_OUTFILE = 1, 1, 1,
 RESTART = .false.,
 RESTART_INTERVAL = 10000,
 IO_FORM_HISTORY = 2,
 IO_FORM_RESTART = 2,
 IO_FORM_INPUT = 2,
 IO_FORM_BOUNDARY = 2,
 DEBUG_LEVEL = 0,
/
 &domains
 TIME_STEP = 72,
 TIME_STEP_FRACT_NUM = 0,
 TIME_STEP_FRACT_DEN = 1,
 MAX_DOM = 3
 S_WE           =   1,  1,  1, 
 E_WE           = 43,  52,  70, 
 S_SN           =   1,  1,  1, 
 E_SN           = 49,  70,  64, 
 S_VERT         =   1,  1,  1, 
 E_VERT         = 52,  52,  52, 
 DX             = 12000.,  4000,  1333.3, 
 DY             = 12000.,  4000,  1333.3, 
 GRID_ID        = 1,  2,  3, 
 PARENT_ID      = 1,  1,  2, 
 I_PARENT_START = 0,  12,  18, 
 J_PARENT_START = 0,  16,  31, 
 PARENT_GRID_RATIO = 1,  3,  3, 
 PARENT_TIME_STEP_RATIO = 1,  3,  3, 
 FEEDBACK = 1,
 SMOOTH_OPTION = 2,
/
 &physics
 MP_PHYSICS = 5,     5,     5,
 RA_LW_PHYSICS = 1,     1,     1,
 RA_SW_PHYSICS = 1,     1,     1,
 RADT = 10,    10,    10,
 SF_SFCLAY_PHYSICS = 1,     1,     1,
 SF_SURFACE_PHYSICS = 1,     1,     1,
 BL_PBL_PHYSICS = 1,     1,     1,
 BLDT = 0,     0,     0,
 CU_PHYSICS = 0,     0,     0,
 CUDT = 5,     5,     5,
 ISFFLX = 1,
 IFSNOW = 1,
 ICLOUD = 1,
 SURFACE_INPUT_SOURCE = 1,
 NUM_SOIL_LAYERS = 5,
 MAXIENS = 1,
 MAXENS = 3,
 MAXENS2 = 3,
 MAXENS3 = 16,
 ENSDIM = 144,
/
 &dynamics
 DYN_OPT                             = 2,
 RK_ORD                              = 3,
 W_DAMPING                           = 0,
 DIFF_OPT                            = 1,
 KM_OPT                              = 4,
 DAMP_OPT                            = 0,
 ZDAMP                               = 5000.,  5000.,  5000.,
 DAMPCOEF                            = 0.2,    0.2,    0.2,
 KHDIF                               = 0,      0,      0,
 KVDIF                               = 0,      0,      0,
 SMDIV                               = 0.1,    0.1,    0.1,
 EMDIV                               = 0.01,   0.01,   0.01,
 EPSSM                               = 0.1,    0.1,    0.1,
 NON_HYDROSTATIC                     = .true., .true., .true.,
 TIME_STEP_SOUND                     = 12,     12,      12,
 H_MOM_ADV_ORDER                     = 5,      5,      5,
 V_MOM_ADV_ORDER                     = 3,      3,      3,
 H_SCA_ADV_ORDER                     = 5,      5,      5,
 V_SCA_ADV_ORDER                     = 3,      3,      3,
/
 &bdy_control
 SPEC_BDY_WIDTH = 5,
 SPEC_ZONE = 1,
 RELAX_ZONE = 4,
 SPECIFIED = .true., .false.,.false.,
 PERIODIC_X = .false.,.false.,.false.,
 SYMMETRIC_XS = .false.,.false.,.false.,
 SYMMETRIC_XE = .false.,.false.,.false.,
 OPEN_XS = .false.,.false.,.false.,
 OPEN_XE = .false.,.false.,.false.,
 PERIODIC_Y = .false.,.false.,.false.,
 SYMMETRIC_YS = .false.,.false.,.false.,
 SYMMETRIC_YE = .false.,.false.,.false.,
 OPEN_YS = .false.,.false.,.false.,
 OPEN_YE = .false.,.false.,.false.,
 NESTED = .false., .true., .true.,
/
 &namelist_quilt
 NIO_TASKS_PER_GROUP = 0,
 NIO_GROUPS = 1,
/
